! File generated by DesignBuilder - 4.7.0.027 25.10.2019 - 15:48:23
! Source file: C:\Users\ecek\AppData\Local\Temp\Untitled 1.dsb

Version, 8.3.0.001;                               !- Version Identifier

RunPeriod,                                        !- Annual simulation
   Untitled (17-08:23-08),                        !- Location
   8,17,                                          !- Start Month , Day
   8,23,                                          !- End Month , Day
   UseWeatherFile,                                !- will use day as shown in weather file
   No,                                            !- Use weather file holidays/special day periods
   No,                                            !- Use WeatherFile DaylightSavingPeriod - will use daylight saving time shown below
   Yes,                                           !- Apply Weekend Holiday Rule - will reassign weekend holidays to Monday
   Yes,                                           !- use weather file rain indicators
   Yes,                                           !- use weather file snow indicators
   1;                                             !- Number of years in simulation

RunPeriodControl:DaylightSavingTime, Last Sunday in March,Last Sunday in September;  !- Daylight saving dates - one hour is added to local mean time to obtain the locally observed time during this period

! Hourly weather file: C:\ProgramData\DesignBuilder\Weather Data\TUR_IZMIR_IWEC.epw

Site:Location,Untitled (17-08:23-08)  (17-08:23-08),  !- Location Name
   38.27,                                         !- Latitude
   27.15,                                         !- Longitude
   2,                                             !- Time Zone
   120;                                           !- Elevation {m}

Site:GroundTemperature:BuildingSurface,           !- Annual ground temperatures - 1 value for each month
   14,                                            !- Jan ground temperature
   14,                                            !- Feb ground temperature
   14,                                            !- Mar ground temperature
   14,                                            !- Apr ground temperature
   14,                                            !- May ground temperature
   14,                                            !- Jun ground temperature
   14,                                            !- Jul ground temperature
   14,                                            !- Aug ground temperature
   14,                                            !- Sep ground temperature
   14,                                            !- Oct ground temperature
   14,                                            !- Nov ground temperature
   14;                                            !- Dec ground temperature

Site:GroundTemperature:Deep,                      !- Annual ground temperatures - 1 value for each month
   14,                                            !- Jan deep ground temperature
   14,                                            !- Feb deep ground temperature
   14,                                            !- Mar deep ground temperature
   14,                                            !- Apr deep ground temperature
   14,                                            !- May deep ground temperature
   14,                                            !- Jun deep ground temperature
   14,                                            !- Jul deep ground temperature
   14,                                            !- Aug deep ground temperature
   14,                                            !- Sep deep ground temperature
   14,                                            !- Oct deep ground temperature
   14,                                            !- Nov deep ground temperature
   14;                                            !- Dec deep ground temperature

Site:GroundTemperature:Shallow,                   !- Annual ground temperatures - 1 value for each month
   14,                                            !- Jan shallow ground temperature
   14,                                            !- Feb shallow ground temperature
   14,                                            !- Mar shallow ground temperature
   14,                                            !- Apr shallow ground temperature
   14,                                            !- May shallow ground temperature
   14,                                            !- Jun shallow ground temperature
   14,                                            !- Jul shallow ground temperature
   14,                                            !- Aug shallow ground temperature
   14,                                            !- Sep shallow ground temperature
   14,                                            !- Oct shallow ground temperature
   14,                                            !- Nov shallow ground temperature
   14;                                            !- Dec shallow ground temperature

Site:GroundTemperature:FCfactorMethod,            !- Annual ground temperatures - 1 value for each month
   8.80,                                          !- January FCfactorMethod ground temperature {C}
   10.28,                                         !- Februry FCfactorMethod ground temperature {C}
   13.17,                                         !- March FCfactorMethod ground temperature {C}
   15.91,                                         !- April FCfactorMethod ground temperature {C}
   21.09,                                         !- May FCfactorMethod ground temperature {C}
   23.82,                                         !- June FCfactorMethod ground temperature {C}
   24.57,                                         !- July FCfactorMethod ground temperature {C}
   23.19,                                         !- August FCfactorMethod ground temperature {C}
   19.99,                                         !- September FCfactorMethod ground temperature {C}
   16.01,                                         !- October FCfactorMethod ground temperature {C}
   12.09,                                         !- November FCfactorMethod ground temperature {C}
   9.50;                                          !- December FCfactorMethod ground temperature {C}

Site:GroundReflectance,                           !- Annual ground reflectances - 1 value for each month
   0.2,                                           !- Jan ground reflectance
   0.2,                                           !- Feb ground reflectance
   0.2,                                           !- Mar ground reflectance
   0.2,                                           !- Apr ground reflectance
   0.2,                                           !- May ground reflectance
   0.2,                                           !- Jun ground reflectance
   0.2,                                           !- Jul ground reflectance
   0.2,                                           !- Aug ground reflectance
   0.2,                                           !- Sep ground reflectance
   0.2,                                           !- Oct ground reflectance
   0.2,                                           !- Nov ground reflectance
   0.2;                                           !- Dec ground reflectance

Site:GroundReflectance:SnowModifier,
   1.0,                                           !- Ground Reflected Solar Modifier
   1.0;                                           !- Daylighting Ground Reflected Solar Modifier

ProgramControl,
   1;                                             !- Number of threads allowed

SimulationControl,
   Yes,                                           !- Do the zone sizing calculation
   Yes,                                           !- Do the system sizing calculation
   No,                                            !- Do the plant sizing calculation
   No,                                            !- Do the design day calculation
   Yes;                                           !- Do the weather file calculation


SizingPeriod:DesignDay, Summer Design Day in Untitled (17-08:23-08) Jul,  !- Design Day Name
   7,                                             !- Month
   15,                                            !- Day of Month
   SummerDesignDay,                               !- Day Type -- used for schedules
   37.1,                                          !- Maximum Dry-Bulb Temperature {C}
   12.5,                                          !- Daily Dry-Bulb Temperature Range {C}
   ,                                              !- Dry-Bulb Temperature Range Modifier Type
   ,                                              !- Dry-Bulb Temperature Range Modifier Schedule
   WetBulb,                                       !- Humidity Condition Type
   20.7,                                          !- Wetbulb at Maximum Dry-Bulb{C}
   ,                                              !- Humidity Condition Day Schedule Name
   ,                                              !- Humidity Ratio at Maximum Dry-Bulb
   ,                                              !- Enthalpy Ratio at Maximum Dry-Bulb
   ,                                              !- Daily Wet-Bulb Temperature Range
   99891.7,                                       !- Barometric Pressure {N/M**2}
   0,                                             !- Wind Speed {m/s}
   0,                                             !- Wind Direction {Degrees N=0, S=180}
   No,                                            !- Rain Indicator
   No,                                            !- Snow on ground indicator
   Yes,                                           !- Daylight Savings Time Indicator
   ,                                              !- Solar Model Indicator
   ,                                              !- Beam Solar Day Schedule Name
   ,                                              !- Diffuse Solar Day Schedule Name
   ,                                              !- ASHRAE Clear Sky Optical Depth for Beam Irradiance (taub)
   ,                                              !- ASHRAE Clear Sky Optical Depth for Diffuse Irradiance (taud)
   0.98;                                          !- Clearness {0.0 to 1.1}

SizingPeriod:DesignDay, Winter Design Day in Untitled (17-08:23-08),  !- Design Day Name
   1,                                             !- Month
   15,                                            !- Day of Month
   WinterDesignDay,                               !- Day Type -- used for schedules
   -2.8,                                          !- Max Dry-Bulb {C}
   0,                                             !- Daily Temp Range {C}
   ,                                              !- Dry-Bulb Temperature Range Modifier Type
   ,                                              !- Dry-Bulb Temperature Range Modifier Schedule
   WetBulb,                                       !- Humidity Condition Type
   -2.8,                                          !- Wet-Bulb at Max {C}
   ,                                              !- Humidity Condition Day Schedule Name
   ,                                              !- Humidity Ratio at Maximum Dry-Bulb
   ,                                              !- Enthalpy Ratio at Maximum Dry-Bulb
   ,                                              !- Daily Wet-Bulb Temperature Range
   99891.7,                                       !- Barometric Pressure {N/M**2}
   13.7,                                          !- Wind Speed {M/Sec}
   0,                                             !- Wind Direction {Degrees N=0, S=180}
   No,                                            !- Rain Indicator
   No,                                            !- Snow on ground indicator
   No,                                            !- Daylight Savings Time Indicator
   ,                                              !- Solar Model Indicator
   ,                                              !- Beam Solar Day Schedule Name
   ,                                              !- Diffuse Solar Day Schedule Name
   ,                                              !- ASHRAE Clear Sky Optical Depth for Beam Irradiance (taub)
   ,                                              !- ASHRAE Clear Sky Optical Depth for Diffuse Irradiance (taud)
   0;                                             !- Clearness {0.0 to 1.1} - gives no sun (but does include long wave radiant heat exchange with sky)

Timestep, 2;                                      !- Timesteps/hour

ConvergenceLimits,
   1,                                             !- Minimum System Time Step (0=same as zone time step)
   25;                                            !- Maximum HVAC Iterations (1=min, 20=default)

ScheduleTypeLimits, Any Number;                         ! Not limited
ScheduleTypeLimits, Fraction,     0.0, 1.0, CONTINUOUS;
ScheduleTypeLimits, Temperature,  -60, 200, CONTINUOUS;
ScheduleTypeLimits, Control Type,   0,   4, DISCRETE;
ScheduleTypeLimits, On/Off,         0,   1, DISCRETE;

Schedule:Compact, 
      On,                                         ! Name
      Any Number,                                 ! Type
      Through: 12/31,                             ! Type
      For: AllDays,                               ! All days in year
      Until: 24:00,                               ! All hours in day
       1;     

Schedule:Compact, 
      Off,                                        ! Name
      Any Number,                                 ! Type
      Through: 12/31,                             ! Type
      For: AllDays,                               ! All days in year
      Until: 24:00,                               ! All hours in day
       0;     

Schedule:Compact, 
      Work efficiency,                            ! Name
      Any Number,                                 ! Type
      Through: 12/31,                             ! Type
      For: AllDays,                               ! All days in year
      Until: 24:00,                               ! All hours in day
       0;     
Schedule:Compact,
      OpaqueShade,                                ! Name
      Any Number,                                 ! Type
      Through: 12/31,                             ! Type
      For: AllDays,                               ! All days in year
      Until: 24:00,                               ! All hours in day
       0;     
       
Schedule:Compact,
    Zone Comfort Control Type Sched,              !- Name
    Control Type,                                 !- Schedule Type Limits Name
    Through: 12/31,                               !- Field 1
    For: AllDays,                                 !- Field 2
    Until: 24:00,                                 !- Field 3
    4;                                            !- Field 4

Schedule:Compact,
    Design Days Only,                             !- Name
    Any Number,                                   !- Schedule Type Limits Name
    Through: 12/31,                               !- Field 1
    For: SummerDesignDay WinterDesignDay,         !- Field 2
    Until: 24:00,                                 !- Field 3
    1,                                            !- Field 4
    For: AllOtherDays,                            !- Field 2
    Until: 24:00,                                 !- Field 3
    0;
      
! off heating day
Schedule:Day:Hourly,  0, Any Number,
   0,0,0,0,0,0,0,0,0,0,0,0,0,0,0,0,0,0,0,0,0,0,0,0;

! off cooling day
Schedule:Day:Hourly,  50, Any Number,
   50,50,50,50,50,50,50,50,50,50,50,50,50,50,50,50,50,50,50,50,50,50,50,50;

! used in seasonal schedules
Schedule:Day:Hourly,  Off, Fraction,
   0,0,0,0,0,0,0,0,0,0,0,0,0,0,0,0,0,0,0,0,0,0,0,0;

Schedule:Week:Daily, Off,
   Off,Off,Off,Off,
   Off,Off,Off,Off,
   Off,Off,Off,Off;

! -------------------- Control type schedules (for heating & cooling) ----------------------

Schedule:Day:Hourly, Summer Control Type Day Sch, Control Type,
   4,4,4,4,4,4,4,4,4,4,4,4,4,4,4,4,4,4,4,4,4,4,4,4;

Schedule:Day:Hourly, Winter Control Type Day Sch, Control Type,
   4,4,4,4,4,4,4,4,4,4,4,4,4,4,4,4,4,4,4,4,4,4,4,4;

Schedule:Day:Hourly, Summer Control Type Day Sch - cool, Control Type,
   2,2,2,2,2,2,2,2,2,2,2,2,2,2,2,2,2,2,2,2,2,2,2,2;

Schedule:Day:Hourly, Winter Control Type Day Sch - heat, Control Type,
   1,1,1,1,1,1,1,1,1,1,1,1,1,1,1,1,1,1,1,1,1,1,1,1;

Schedule:Week:Daily, Summer Control Type Week Sch,
   Summer Control Type Day Sch,Summer Control Type Day Sch,Summer Control Type Day Sch,
   Summer Control Type Day Sch,Summer Control Type Day Sch,Summer Control Type Day Sch,
   Summer Control Type Day Sch,Summer Control Type Day Sch,Summer Control Type Day Sch,
   Summer Control Type Day Sch,Summer Control Type Day Sch,Summer Control Type Day Sch;

Schedule:Week:Daily, Winter Control Type Week Sch,
   Winter Control Type Day Sch,Winter Control Type Day Sch,Winter Control Type Day Sch,
   Winter Control Type Day Sch,Winter Control Type Day Sch,Winter Control Type Day Sch,
   Winter Control Type Day Sch,Winter Control Type Day Sch,Winter Control Type Day Sch,
   Winter Control Type Day Sch,Winter Control Type Day Sch,Winter Control Type Day Sch;

Schedule:Week:Daily, Summer Control Type Week Sch - cool,
   Summer Control Type Day Sch - cool,Summer Control Type Day Sch - cool,Summer Control Type Day Sch - cool,
   Summer Control Type Day Sch - cool,Summer Control Type Day Sch - cool,Summer Control Type Day Sch - cool,
   Summer Control Type Day Sch - cool,Summer Control Type Day Sch - cool,Summer Control Type Day Sch - cool,
   Summer Control Type Day Sch - cool,Summer Control Type Day Sch - cool,Summer Control Type Day Sch - cool;

Schedule:Week:Daily, Winter Control Type Week Sch - heat,
   Winter Control Type Day Sch - heat,Winter Control Type Day Sch - heat,Winter Control Type Day Sch - heat,
   Winter Control Type Day Sch - heat,Winter Control Type Day Sch - heat,Winter Control Type Day Sch - heat,
   Winter Control Type Day Sch - heat,Winter Control Type Day Sch - heat,Winter Control Type Day Sch - heat,
   Winter Control Type Day Sch - heat,Winter Control Type Day Sch - heat,Winter Control Type Day Sch - heat;

!Material:InfraredTransparent,
!IRTMaterial; !- Name

!Construction,
!IRTSurface,  !- Name
!IRTMaterial; !- Outside Layer





Material:NoMass, 
LinearBridgingLayer,                  ! Material Name
Rough,                                ! Roughness
0.6267 ,                              ! Resistance {M**2K/W} will give Total Resistance 1
0.0100000 ,                           ! Thermal Absorptance
0.0100000 ,                           ! Solar Absorptance
0.0100000 ;                           ! Visible Absorptance

Construction,
LinearBridgingConstruction,           !- Name
LinearBridgingLayer;                  !- Layer

Schedule:Compact,
TypOperativeTempControlSch,
Temperature,
Through: 31 Dec,
For: SummerDesignDay WinterDesignDay,
Until: 24:00, 0.0,
For: AllOtherDays,
Until: 24:00, 0.5;

Schedule:Compact, AirVelocitySchedule,
   Any Number,                                    !- Type
   Through: 12/31,
   For: AllDays,                                  !- All days in year
   Until: 24:00,                                  !- All hours in day
   .137;                                          !- Velocity
Material:InfraredTransparent,
IRTMaterial; !- Name

Construction,
IRTSurface,  !- Name
IRTMaterial; !- Outside Layer


! Schedule: On 24/7
Schedule:Compact, 
On 24/7, 
Any Number,
Through: 12/31,
For: AllDays,   
Until: 24:00,   1 ;


! Schedule: Dwell_DomCommonAreas_Occ
Schedule:Compact,
Dwell_DomCommonAreas_Occ,
Fraction,
Through: 31 Dec,
For: Weekdays SummerDesignDay,
Until: 07:00, 0,
Until: 08:00, 0.5,
Until: 09:00, 1,
Until: 10:00, 0.5,
Until: 17:00, 0,
Until: 18:00, 0.25,
Until: 19:00, 0.5,
Until: 20:00, 0.75,
Until: 22:00, 1,
Until: 23:00, 0.75,
Until: 24:00, 0.25,
For: Weekends,
Until: 09:00, 0,
Until: 21:00, 1,
Until: 24:00, 0,
For: Holidays,
Until: 09:00, 0,
Until: 21:00, 1,
Until: 24:00, 0,
For: WinterDesignDay AllOtherDays,
Until: 24:00, 0;


! Schedule: Dwell_DomCommonAreas_Light
Schedule:Compact,
Dwell_DomCommonAreas_Light,
Fraction,
Through: 31 Dec,
For: Weekdays SummerDesignDay,
Until: 07:00, 0,
Until: 10:00, 1,
Until: 17:00, 0,
Until: 24:00, 1,
For: Weekends,
Until: 09:00, 0,
Until: 21:00, 1,
Until: 24:00, 0,
For: Holidays,
Until: 09:00, 0,
Until: 21:00, 1,
Until: 24:00, 0,
For: WinterDesignDay AllOtherDays,
Until: 24:00, 0;


! Schedule: Dwell_DomCommonAreas_Equip
Schedule:Compact,
Dwell_DomCommonAreas_Equip,
Fraction,
Through: 31 Dec,
For: Weekdays SummerDesignDay,
Until: 07:00, 0.0463,
Until: 23:00, 1,
Until: 24:00, 0.33241,
For: Weekends,
Until: 07:00, 0.0463,
Until: 23:00, 1,
Until: 24:00, 0.33241,
For: Holidays,
Until: 07:00, 0.0463,
Until: 23:00, 1,
Until: 24:00, 0.33241,
For: WinterDesignDay AllOtherDays,
Until: 24:00, 0;


WindowMaterial:Gas,1001,                          !- AIR 6MM
   Air,                                           !- Gas type (Air - Argon - Krypton - Xenon - SF6 - Custom)
    .006;                                         !- Thickness {m}

WindowMaterial:Gas,Half thickness 1001,           !- AIR 6MM
   Air,                                           !- Gas type (Air - Argon - Krypton - Xenon - SF6 - Custom)
    .003;                                         !- Thickness {m}

WindowMaterial:Gas,1002,                          !- AIR 13MM
   Air,                                           !- Gas type (Air - Argon - Krypton - Xenon - SF6 - Custom)
    .013;                                         !- Thickness {m}

WindowMaterial:Gas,Half thickness 1002,           !- AIR 13MM
   Air,                                           !- Gas type (Air - Argon - Krypton - Xenon - SF6 - Custom)
    .0065;                                        !- Thickness {m}


WindowMaterial:Glazing,2,                         !- Generic CLEAR 3MM
   SpectralAverage,                               !- Optical data type {SpectralAverage or Spectral}
   ,                                              !- Name of spectral data set when Optical Data Type = Spectral
   .003,                                          !- Thickness {m}
   .837,                                          !- Solar transmittance at normal incidence
   .075,                                          !- Solar reflectance at normal incidence: front side
   .075,                                          !- Solar reflectance at normal incidence: back side
   .898,                                          !- Visible transmittance at normal incidence
   .081,                                          !- Visible reflectance at normal incidence: front side
   .081,                                          !- Visible reflectance at normal incidence: back side
   .0,                                            !- IR transmittance at normal incidence
   .84,                                           !- IR emissivity: front side
   .84,                                           !- IR emissivity: back side
   .9,                                            !- Conductivity {W/m-K}
   1;                                             !- Dirt Correction Factor for Solar and Visible Transmittance

WindowMaterial:Glazing,38,                        !- Generic PYR B CLEAR 3MM
   SpectralAverage,                               !- Optical data type {SpectralAverage or Spectral}
   ,                                              !- Name of spectral data set when Optical Data Type = Spectral
   .003,                                          !- Thickness {m}
   .740,                                          !- Solar transmittance at normal incidence
   .090,                                          !- Solar reflectance at normal incidence: front side
   .100,                                          !- Solar reflectance at normal incidence: back side
   .820,                                          !- Visible transmittance at normal incidence
   .110,                                          !- Visible reflectance at normal incidence: front side
   .120,                                          !- Visible reflectance at normal incidence: back side
   .0,                                            !- IR transmittance at normal incidence
   .84,                                           !- IR emissivity: front side
   .20,                                           !- IR emissivity: back side
   .9,                                            !- Conductivity {W/m-K}
   1;                                             !- Dirt Correction Factor for Solar and Visible Transmittance

WindowMaterial:Glazing,100,                       !- PERFECTLY CLEAR
   SpectralAverage,                               !- Optical data type {SpectralAverage or Spectral}
   ,                                              !- Name of spectral data set when Optical Data Type = Spectral
   .003,                                          !- Thickness {m}
   .99,                                           !- Solar transmittance at normal incidence
   .005,                                          !- Solar reflectance at normal incidence: front side
   .005,                                          !- Solar reflectance at normal incidence: back side
   .99,                                           !- Visible transmittance at normal incidence
   .005,                                          !- Visible reflectance at normal incidence: front side
   .005,                                          !- Visible reflectance at normal incidence: back side
   .99,                                           !- IR transmittance at normal incidence
   .005,                                          !- IR emissivity: front side
   .005,                                          !- IR emissivity: back side
   5,                                             !- Conductivity {W/m-K}
   1;                                             !- Dirt Correction Factor for Solar and Visible Transmittance
! Gypsum Plasterboard- thickness 0.025
Material, Gypsum Plasterboard_0.025,
   Rough,                                         !- Roughness
    .025,                                         !- Thickness {m}
   0.25,                                          !- Conductivity {w/m-K}
   900,                                           !- Density {kg/m3}
   1000,                                          !- Specific Heat {J/kg-K}
   0.9,                                           !- Thermal Emittance
   0.5,                                           !- Solar Absorptance
   0.5;                                           !- Visible Absorptance

! Brickwork, Outer Leaf- thickness 0.1
Material, Brickwork Outer Leaf_0.1,
   Rough,                                         !- Roughness
    .1,                                           !- Thickness {m}
   0.84,                                          !- Conductivity {w/m-K}
   1700,                                          !- Density {kg/m3}
   800,                                           !- Specific Heat {J/kg-K}
   0.9,                                           !- Thermal Emittance
   0.7,                                           !- Solar Absorptance
   0.7;                                           !- Visible Absorptance

! XPS Extruded Polystyrene  - CO2 Blowing- thickness 0.0795
Material, XPS Extruded Polystyrene  - CO2 Blowing_0.0795,
   Rough,                                         !- Roughness
    .0795,                                        !- Thickness {m}
   0.034,                                         !- Conductivity {w/m-K}
   35,                                            !- Density {kg/m3}
   1400,                                          !- Specific Heat {J/kg-K}
   0.9,                                           !- Thermal Emittance
   0.6,                                           !- Solar Absorptance
   0.6;                                           !- Visible Absorptance

! Concrete Block (Medium)- thickness 0.1
Material, Concrete Block (Medium)_0.1,
   Rough,                                         !- Roughness
    .1,                                           !- Thickness {m}
   0.51,                                          !- Conductivity {w/m-K}
   1400,                                          !- Density {kg/m3}
   1000,                                          !- Specific Heat {J/kg-K}
   0.9,                                           !- Thermal Emittance
   0.6,                                           !- Solar Absorptance
   0.6;                                           !- Visible Absorptance

! Gypsum Plastering- thickness 0.013
Material, Gypsum Plastering_0.013,
   Rough,                                         !- Roughness
    .013,                                         !- Thickness {m}
   0.4,                                           !- Conductivity {w/m-K}
   1000,                                          !- Density {kg/m3}
   1000,                                          !- Specific Heat {J/kg-K}
   0.9,                                           !- Thermal Emittance
   0.5,                                           !- Solar Absorptance
   0.5;                                           !- Visible Absorptance

! External Rendering- thickness 0.025
Material, External Rendering_0.025,
   Rough,                                         !- Roughness